/*--------------------------------*- C++ -*----------------------------------*\
| =========                 |                                                 |
| \\      /  F ield         | OpenFOAM: The Open Source CFD Toolbox           |
|  \\    /   O peration     | Version:  5                                     |
|   \\  /    A nd           | Web:      www.OpenFOAM.org                      |
|    \\/     M anipulation  |                                                 |
\*---------------------------------------------------------------------------*/
FoamFile
{
    version     2.0;
    format      ascii;
    class       dictionary;
    object      thermophysicalProperties;
}
// * * * * * * * * * * * * * * * * * * * * * * * * * * * * * * * * * * * * * //

thermoType
{
    type            heSolidThermo;
    mixture         pureMixture;
    transport       polynomial;
    thermo          hPolynomial;
    equationOfState rhoConst;
    specie          specie;
    energy          sensibleEnthalpy;
}

mixture
{
    specie
    {
        molWeight   50;
    }

    transport
    {
        kappaCoeffs<8>   (21.5 0 0 0 0 0 0 0); ///////////https:/doi.org/10.1007/s10765-005-5582-6
    }

    thermodynamics
    {
        Hf      0;
        Sf      0;
        CpCoeffs<8>      (4.14796820e+02 2.91308975e-01 -1.53182490e-04 6.0417189e-08 0 0 0 0); //pincell nb
    }

    equationOfState
    {
        rho     7920; //gao
    }
}



// ************************************************************************* //
