/*--------------------------------*- C++ -*----------------------------------*\
| =========                 |                                                 |
| \\      /  F ield         | OpenFOAM: The Open Source CFD Toolbox           |
|  \\    /   O peration     | Version:  5                                     |
|   \\  /    A nd           | Web:      www.OpenFOAM.org                      |
|    \\/     M anipulation  |                                                 |
\*---------------------------------------------------------------------------*/
FoamFile
{
    version     2.0;
    format      ascii;
    class       dictionary;
    object      thermophysicalProperties;
}
// * * * * * * * * * * * * * * * * * * * * * * * * * * * * * * * * * * * * * //

thermoType
{
    type            heSolidThermo;
    mixture         pureMixture;
    transport       polynomial;
    thermo          hPolynomial;
    equationOfState rhoConst;
    specie          specie;
    energy          sensibleEnthalpy;
}

mixture
{
    specie
    {
        molWeight   223.5; //Calculated
    }

    transport
    {
        kappaCoeffs<8>   (17.943704711636254 0 0 0 0 0 0 0); //pincell nb
    }

    thermodynamics
    {
        Hf      0;
        Sf      0;
        CpCoeffs<8>      (208.82 0 0 0 0 0 0 0); //pincell nb
    }

    equationOfState
    {
        rho     11880;// Gao
    }
}



// ************************************************************************* //
